pcf
* control data
             restart          estimation
        30         4         1         0         2
         1         1              single               point         1
   1.000000E+01   2.000000E+00   3.000000E-01   1.000000E-02         8
   1.000000E+01   1.000000E+01   1.000000E-03
   1.000000E-01
         1   1.000000E-02         3         3   1.000000E-02         3
         1         1         1
* singular value decomposition
         1
  10000000    1.000000E-06
1
* parameter groups
decvar                 absolute              1.0000000000E-02      0.0 switch                1.0000000000E+00      parabolic             1.0000000000E-05      5.0000000000E-01      smaller              
* parameter data
x1                    none                  relative              0.0000000000E+00      -1.0000000000E-02     1.0100000000E+00      decvar                1.0000000000E+00      0.0000000000E+00      1          
x2                    none                  relative              0.0000000000E+00      0.0000000000E+00      1.0000000000E+00      decvar                1.0000000000E+00      0.0000000000E+00      1          
x3                    none                  relative              0.0000000000E+00      0.0000000000E+00      1.0000000000E+00      decvar                1.0000000000E+00      0.0000000000E+00      1          
x4                    none                  relative              0.0000000000E+00      0.0000000000E+00      1.0000000000E+00      decvar                1.0000000000E+00      0.0000000000E+00      1          
x5                    none                  relative              0.0000000000E+00      0.0000000000E+00      1.0000000000E+00      decvar                1.0000000000E+00      0.0000000000E+00      1          
x6                    none                  relative              0.0000000000E+00      0.0000000000E+00      1.0000000000E+00      decvar                1.0000000000E+00      0.0000000000E+00      1          
x7                    none                  relative              0.0000000000E+00      0.0000000000E+00      1.0000000000E+00      decvar                1.0000000000E+00      0.0000000000E+00      1          
x8                    none                  relative              0.0000000000E+00      0.0000000000E+00      1.0000000000E+00      decvar                1.0000000000E+00      0.0000000000E+00      1          
x9                    none                  relative              0.0000000000E+00      0.0000000000E+00      1.0000000000E+00      decvar                1.0000000000E+00      0.0000000000E+00      1          
x10                   none                  relative              0.0000000000E+00      0.0000000000E+00      1.0000000000E+00      decvar                1.0000000000E+00      0.0000000000E+00      1          
x11                   none                  relative              0.0000000000E+00      0.0000000000E+00      1.0000000000E+00      decvar                1.0000000000E+00      0.0000000000E+00      1          
x12                   none                  relative              0.0000000000E+00      0.0000000000E+00      1.0000000000E+00      decvar                1.0000000000E+00      0.0000000000E+00      1          
x13                   none                  relative              0.0000000000E+00      0.0000000000E+00      1.0000000000E+00      decvar                1.0000000000E+00      0.0000000000E+00      1          
x14                   none                  relative              0.0000000000E+00      0.0000000000E+00      1.0000000000E+00      decvar                1.0000000000E+00      0.0000000000E+00      1          
x15                   none                  relative              0.0000000000E+00      0.0000000000E+00      1.0000000000E+00      decvar                1.0000000000E+00      0.0000000000E+00      1          
x16                   none                  relative              0.0000000000E+00      0.0000000000E+00      1.0000000000E+00      decvar                1.0000000000E+00      0.0000000000E+00      1          
x17                   none                  relative              0.0000000000E+00      0.0000000000E+00      1.0000000000E+00      decvar                1.0000000000E+00      0.0000000000E+00      1          
x18                   none                  relative              0.0000000000E+00      0.0000000000E+00      1.0000000000E+00      decvar                1.0000000000E+00      0.0000000000E+00      1          
x19                   none                  relative              0.0000000000E+00      0.0000000000E+00      1.0000000000E+00      decvar                1.0000000000E+00      0.0000000000E+00      1          
x20                   none                  relative              0.0000000000E+00      0.0000000000E+00      1.0000000000E+00      decvar                1.0000000000E+00      0.0000000000E+00      1          
x21                   none                  relative              0.0000000000E+00      0.0000000000E+00      1.0000000000E+00      decvar                1.0000000000E+00      0.0000000000E+00      1          
x22                   none                  relative              0.0000000000E+00      0.0000000000E+00      1.0000000000E+00      decvar                1.0000000000E+00      0.0000000000E+00      1          
x23                   none                  relative              0.0000000000E+00      0.0000000000E+00      1.0000000000E+00      decvar                1.0000000000E+00      0.0000000000E+00      1          
x24                   none                  relative              0.0000000000E+00      0.0000000000E+00      1.0000000000E+00      decvar                1.0000000000E+00      0.0000000000E+00      1          
x25                   none                  relative              0.0000000000E+00      0.0000000000E+00      1.0000000000E+00      decvar                1.0000000000E+00      0.0000000000E+00      1          
x26                   none                  relative              0.0000000000E+00      0.0000000000E+00      1.0000000000E+00      decvar                1.0000000000E+00      0.0000000000E+00      1          
x27                   none                  relative              0.0000000000E+00      0.0000000000E+00      1.0000000000E+00      decvar                1.0000000000E+00      0.0000000000E+00      1          
x28                   none                  relative              0.0000000000E+00      0.0000000000E+00      1.0000000000E+00      decvar                1.0000000000E+00      0.0000000000E+00      1          
x29                   none                  relative              0.0000000000E+00      0.0000000000E+00      1.0000000000E+00      decvar                1.0000000000E+00      0.0000000000E+00      1          
x30                   none                  relative              0.0000000000E+00      0.0000000000E+00      1.0000000000E+00      decvar                1.0000000000E+00      0.0000000000E+00      1          
* observation groups
less_obj             
miscdata             
* observation data
obj_1                 0.0000000000E+00      1.0000000000E+00      less_obj             
obj_2                 0.0000000000E+00      1.0000000000E+00      less_obj             
obj_1_sd              0.0000000000E+00      1.0000000000E+00      miscdata             
obj_2_sd              0.0000000000E+00      1.0000000000E+00      miscdata             
* model command line
python forward_gprun.py
* model input/output
dv_tpl.dat dv.dat
gp_output.ins gp_output.dat
++opt_dec_var_groups(decvar)
++mou_objectives(obj_1,obj_2)
++panther_agent_freeze_on_fail(true)
++mou_save_population_every(1)
++mou_generator(pso)
++mou_env_selector(NSGA_PPD)
++mou_ppd_beta(0.8)
++mou_dv_population_file(fitness_test.dv_pop.csv)
++mou_obs_population_restart_file(fitness_test.obs_pop.csv)
